# File generated by Flopy version 3.9.0.dev0 on 10/29/2024 at 08:36:29.
BEGIN options
END options

BEGIN packages
  DISU6  disu01a.disu  disu
  IC6  disu01a.ic  ic
  NPF6  disu01a.npf  npf
  CHD6  disu01a.chd  chd_0
END packages

