# File generated by Flopy version 3.9.0.dev0 on 10/29/2024 at 08:36:29.
BEGIN options
END options

BEGIN griddata
  icelltype
    CONSTANT  0
  k
    CONSTANT       1.00000000
END griddata

