# File generated by Flopy version 3.9.0.dev0 on 10/29/2024 at 08:36:29.
BEGIN options
END options

BEGIN timing
  TDIS6  disu01a.tdis
END timing

BEGIN models
  gwf6  disu01a.nam  disu01a
END models

BEGIN exchanges
END exchanges

BEGIN solutiongroup  1
  ims6  disu01a.ims  disu01a
END solutiongroup  1

