# File generated by Flopy version 3.9.0.dev2 on 10/30/2024 at 08:03:52.
BEGIN options
END options

BEGIN packages
  DISV6  disv01a.disv  disv
  IC6  disv01a.ic  ic
  NPF6  disv01a.npf  npf
  CHD6  disv01a.chd  chd_0
END packages

