# File generated by Flopy version 3.9.0.dev2 on 10/30/2024 at 08:03:52.
BEGIN options
END options

BEGIN griddata
  icelltype
    CONSTANT  0
  k
    CONSTANT       1.00000000
END griddata

