# File generated by Flopy version 3.9.0.dev2 on 10/30/2024 at 08:03:52.
BEGIN options
  PRINT_OPTION  summary
END options

