# File generated by Flopy version 3.9.0.dev2 on 10/30/2024 at 08:03:52.
BEGIN options
END options

BEGIN dimensions
  MAXBOUND  2
END dimensions

BEGIN period  1
  1 1 1.00000000E+00
  1 9 0.00000000E+00
END period  1

