# File generated by Flopy version 3.9.0.dev2 on 10/30/2024 at 08:03:52.
BEGIN options
END options

BEGIN timing
  TDIS6  disv01a.tdis
END timing

BEGIN models
  gwf6  disv01a.nam  disv01a
END models

BEGIN exchanges
END exchanges

BEGIN solutiongroup  1
  ims6  disv01a.ims  disv01a
END solutiongroup  1

