# File generated by Flopy version 3.9.0.dev0 on 10/11/2024 at 12:48:39.
BEGIN options
  PRINT_FLOWS
END options

BEGIN dimensions
  MAXBOUND  2
END dimensions

BEGIN period  1
  1 1 1 1.00000000E+00
  1 1 100 0.00000000E+00
END period  1

