# File generated by Flopy version 3.9.0.dev0 on 10/11/2024 at 12:48:39.
BEGIN options
  SAVE_FLOWS
END options

BEGIN packages
  DIS6  gwf_chd01.dis  dis
  IC6  gwf_chd01.ic  ic
  NPF6  gwf_chd01.npf  npf
  CHD6  gwf_chd01.chd  chd-1
  #OC6  gwf_chd01.oc  oc
END packages

