# File generated by Flopy version 3.9.0.dev0 on 10/11/2024 at 12:48:39.
BEGIN options
  SAVE_SPECIFIC_DISCHARGE
END options

BEGIN griddata
  icelltype
    CONSTANT  0
  k
    CONSTANT       1.00000000
  k33
    CONSTANT       1.00000000
END griddata

